 energy: -28.867691663914 gnorm: 0.000077419792 xtb: 6.7.1 (edcfbbe)
     RDKit          3D

 11 12  0  0  0  0  0  0  0  0999 V2000
    2.9726   -0.8971   -0.1827 C   0  0  0  0  0  0  0  0  0  0  0  0
    1.9714   -0.6155   -1.0255 C   0  0  0  0  0  0  0  0  0  0  0  0
    1.2229    0.5583   -0.4665 C   0  0  1  0  0  0  0  0  0  0  0  0
   -0.2363    0.2980   -0.1993 C   0  0  0  0  0  0  0  0  0  0  0  0
   -1.2232    1.0952   -0.7618 C   0  0  0  0  0  0  0  0  0  0  0  0
   -2.5593    0.8387   -0.5052 C   0  0  0  0  0  0  0  0  0  0  0  0
   -2.9203   -0.2139    0.3172 C   0  0  0  0  0  0  0  0  0  0  0  0
   -1.9392   -1.0108    0.8840 C   0  0  0  0  0  0  0  0  0  0  0  0
   -0.6046   -0.7575    0.6274 C   0  0  0  0  0  0  0  0  0  0  0  0
    2.0302    0.7827    0.7865 C   0  0  0  0  0  0  0  0  0  0  0  0
    2.9987   -0.0356    0.9188 N   0  0  0  0  0  0  0  0  0  0  0  0
  1  2  2  0
  2  3  1  0
  3  4  1  1
  4  5  2  0
  5  6  1  0
  6  7  2  0
  7  8  1  0
  8  9  2  0
  3 10  1  0
 10 11  2  0
  9  4  1  0
 11  1  1  0
M  END
$$$$
